<net>
    <!-- Define Nodes -->
    <nodes>
        <node id="north_end" x="0" y="100"/>
        <node id="south_end" x="0" y="-100"/>
        <node id="east_end" x="100" y="0"/>
        <node id="west_end" x="-100" y="0"/>
        <node id="center" x="0" y="0" type="traffic_light"/>
    </nodes>

    <!-- Define Edges -->
    <edges>
        <edge id="north" from="north_end" to="center">
            <lane index="0" allow="passenger"/>
        </edge>
        <edge id="south" from="center" to="south_end">
            <lane index="0" allow="passenger"/>
        </edge>
        <edge id="east" from="east_end" to="center">
            <lane index="0" allow="passenger"/>
        </edge>
        <edge id="west" from="center" to="west_end">
            <lane index="0" allow="passenger"/>
        </edge>
    </edges>

    <!-- Traffic Light Logic (CORRECTED) -->
    <tlLogic id="center" type="static" programID="0" offset="0">
        <phase duration="31" state="GrGr"/>
        <phase duration="6" state="YrYr"/>
        <phase duration="31" state="rGrG"/>
        <phase duration="6" state="rYrY"/>
    </tlLogic>
</net>