<routes>
    <vType id="car" accel="2.6" decel="4.5" sigma="0.5" length="5"/>
    <route id="north_south" edges="north south"/>
    <route id="east_west" edges="east west"/>
    
    <vehicle id="car1" type="car" route="north_south" depart="0"/>
    <vehicle id="car2" type="car" route="east_west" depart="5"/>
</routes>